Version 4
SHEET 1 880 680
WIRE 112 48 32 48
WIRE 240 48 192 48
WIRE 320 48 240 48
WIRE 448 48 400 48
WIRE 608 48 528 48
WIRE 752 48 608 48
WIRE 32 112 32 48
WIRE 240 112 240 48
WIRE 608 112 608 48
WIRE 752 112 752 48
WIRE 32 240 32 192
WIRE 240 240 240 192
WIRE 240 240 32 240
WIRE 432 240 240 240
WIRE 608 240 608 192
WIRE 608 240 432 240
WIRE 752 240 752 192
WIRE 752 240 608 240
WIRE 432 256 432 240
FLAG 432 256 0
FLAG 240 48 a
SYMBOL voltage 32 96 R0
SYMATTR InstName Vs
SYMATTR Value 0
SYMBOL voltage 752 96 R0
SYMATTR InstName V1
SYMATTR Value 6.5
SYMBOL res 224 96 R0
SYMATTR InstName R4
SYMATTR Value 4.7k
SYMBOL res 592 96 R0
SYMATTR InstName R5
SYMATTR Value 10k
SYMBOL res 96 64 R270
WINDOW 0 32 56 VTop 2
WINDOW 3 0 56 VBottom 2
SYMATTR InstName Rs
SYMATTR Value 1k
SYMBOL res 304 64 R270
WINDOW 0 32 56 VTop 2
WINDOW 3 0 56 VBottom 2
SYMATTR InstName R1
SYMATTR Value 1k
SYMBOL res 432 64 R270
WINDOW 0 32 56 VTop 2
WINDOW 3 0 56 VBottom 2
SYMATTR InstName R3
SYMATTR Value 3.3k
TEXT 32 304 Left 2 !.dc Vs 0 10 0.1
